%mem=28GB
%nprocshared=12
%chk=C4H9OH_1_2_3_opt_M06.chk
#p M062X/def2TZVP

using ub3lyp/6-31G(d) to scan

0 1
C	1.715489	-0.789817	-0.004082
H	1.646774	-1.825728	-0.358140
H	1.889940	-0.817515	1.079386
H	2.597874	-0.335377	-0.468513
C	0.446264	0.007742	-0.333837
H	0.315018	-0.002833	-1.429264
C	-0.787505	-0.674311	0.275989
H	-0.717388	-0.658728	1.370288
H	-0.819367	-1.732380	-0.033857
C	0.555871	1.468153	0.120831
H	-0.372277	2.010052	-0.083630
H	0.743472	1.523931	1.201317
H	1.379740	1.982030	-0.387981
O	-2.014087	-0.019035	-0.031224
H	-2.131807	-0.061776	-0.993219





