%mem=28GB
%nprocshared=12
%chk=C4H9OH_2_2_3_opt_M06.chk
#p M062X/def2TZVP

using ub3lyp/6-31G(d) to scan

0 1
C	0.690773	-1.265308	-0.510126
H	1.748116	-1.279030	-0.213509
H	0.653943	-1.321572	-1.604336
H	0.210636	-2.159510	-0.099313
C	-0.005409	-0.000002	0.013734
C	0.690054	1.265719	-0.510077
H	0.653200	1.322000	-1.604286
H	0.209392	2.159626	-0.099236
H	1.747384	1.280044	-0.213446
C	-1.490523	-0.000410	-0.356787
H	-1.983413	-0.886986	0.055401
H	-1.983920	0.885853	0.055469
H	-1.622927	-0.000406	-1.443975
O	0.014152	-0.000023	1.452366
H	0.945008	0.000169	1.727836





