%mem=28GB
%nprocshared=12
%chk=C3H7OOH_1_3_opt_M06.chk
#p M062X/def2TZVP

using ub3lyp/6-31G(d) to scan

0 1
C	-2.449767	-0.294459	0.011156
H	-2.508100	-0.925779	0.905876
H	-2.511299	-0.950855	-0.864952
H	-3.331981	0.354143	0.003662
C	-1.162403	0.537185	-0.004078
H	-1.135323	1.178113	-0.893474
H	-1.132593	1.203287	0.867135
C	0.084082	-0.343475	0.002179
H	0.111588	-0.995474	-0.881361
H	0.114558	-0.980670	0.899405
O	1.205206	0.534781	-0.013605
O	2.393086	-0.302380	-0.095994
H	2.775342	-0.137476	0.784953





