%mem=30GB
%nprocshared=8
%chk=D:\hetanjin\smallSoftware\github\storageFiles\Templates\Template13\freq\result_C9H18_1_26.chk
#p opt=calcfc freq cbs-qb3 guess=read geom=(connectivity,check)

optimization and freq

0 1
 C                  3.89339000   -0.75954400    0.26365500
 H                  3.92792300   -1.63641900   -0.39332400
 H                  3.86277100   -1.13944200    1.29141800
 H                  4.82187400   -0.20050700    0.13430700
 C                  2.68295800    0.09093800   -0.03420500
 C                  1.35696700   -0.62085800    0.13090000
 H                  1.36987600   -1.51442100   -0.50984600
 H                  1.30962700   -1.01430600    1.15662700
 C                  0.08794000    0.18533100   -0.15595800
 H                  0.11431500    0.55208000   -1.18901100
 H                  0.07276200    1.07042500    0.48767200
 C                 -1.18971000   -0.63765600    0.05324500
 H                 -1.24469700   -0.96812800    1.09972100
 H                 -1.12110400   -1.55223600   -0.54932700
 C                 -2.50203700    0.08372500   -0.30885200
 H                 -2.40972400    0.43706000   -1.34523400
 C                 -3.68613200   -0.89147200   -0.25153200
 H                 -3.82223300   -1.28063900    0.76353500
 H                 -4.61879800   -0.40133400   -0.54583300
 H                 -3.53206900   -1.74574800   -0.91733900
 C                 -2.76765700    1.30546300    0.58290000
 H                 -3.71029200    1.78930100    0.31106800
 H                 -2.83879700    1.00936600    1.63566300
 H                 -1.97768400    2.05553600    0.50032000
 C                  2.80291400    1.36440300   -0.41119000
 H                  1.94606200    1.98954800   -0.63034400
 H                  3.77839100    1.82788100   -0.51384800

 1 2 1.0 3 1.0 4 1.0 5 1.0
 2
 3
 4
 5 6 1.0 25 2.0
 6 7 1.0 8 1.0 9 1.0
 7
 8
 9 10 1.0 11 1.0 12 1.0
 10
 11
 12 13 1.0 14 1.0 15 1.0
 13
 14
 15 16 1.0 17 1.0 21 1.0
 16
 17 18 1.0 19 1.0 20 1.0
 18
 19
 20
 21 22 1.0 23 1.0 24 1.0
 22
 23
 24
 25 26 1.0 27 1.0
 26
 27

