%mem=30GB
%nprocshared=8
%chk=D:\hetanjin\smallSoftware\github\storageFiles\Templates\Template13\freq\result_C9H18OOH_2_26_d.chk
#p opt=calcfc freq cbs-qb3 guess=read geom=(connectivity,check)

optimization and freq

0 2
 C                  3.31778600   -0.25349500   -0.76187400
 H                  3.14488800    0.27967000   -1.69800800
 H                  3.62982300   -1.27268200   -1.00300600
 H                  4.13437500    0.23558600   -0.22343700
 C                  0.86389300   -0.91204700   -0.68356100
 H                  0.74112200   -0.32637300   -1.60098000
 H                  1.19132600   -1.91460500   -0.98281300
 C                 -0.43494300   -0.99333100    0.04653100
 H                 -0.64809600   -1.88815900    0.62647900
 C                 -1.36060100    0.16805400    0.19397500
 H                 -1.21057600    0.87067300   -0.63588700
 H                 -1.08740000    0.74196000    1.09589700
 C                 -2.85455600   -0.20994200    0.29251300
 H                 -2.95560500   -0.94412500    1.10393900
 C                 -3.70427600    1.01360500    0.65767000
 H                 -3.62881500    1.78484500   -0.11665900
 H                 -4.76068700    0.74759900    0.75873900
 H                 -3.37729400    1.45822200    1.60218000
 C                  2.29742500   -0.95160800    1.44149600
 H                  2.55125000   -2.00221500    1.28028600
 H                  3.12445000   -0.47120900    1.96895700
 H                  1.40730600   -0.90237800    2.07016700
 C                 -3.35861600   -0.86317100   -1.00117100
 H                 -4.40459800   -1.17098500   -0.90950200
 H                 -3.29015400   -0.16094000   -1.83967900
 H                 -2.76708700   -1.74571100   -1.25879500
 C                  2.05017500   -0.26694500    0.09614200
 O                  1.70903700    1.08043600    0.50703000
 O                  1.43255400    1.89265000   -0.66945500
 H                  2.17532000    2.50942200   -0.62880500

 1 2 1.0 3 1.0 4 1.0 27 1.0
 2
 3
 4
 5 6 1.0 7 1.0 8 1.0 27 1.0
 6
 7
 8 9 1.0 10 1.0
 9
 10 11 1.0 12 1.0 13 1.0
 11
 12
 13 14 1.0 15 1.0 23 1.0
 14
 15 16 1.0 17 1.0 18 1.0
 16
 17
 18
 19 20 1.0 21 1.0 22 1.0 27 1.0
 20
 21
 22
 23 24 1.0 25 1.0 26 1.0
 24
 25
 26
 27 28 1.0
 28
 29 30 1.0
 30

