%mem=30GB
%nprocshared=8
%chk=D:\hetanjin\smallSoftware\github\storageFiles\Templates\Template13\freq\result_ho2.chk
#p opt=calcfc freq cbs-qb3 guess=read geom=(connectivity,check)

optimization and freq

0 2
 O                  0.05528600   -0.60963300    0.00000000
 H                 -0.88457300   -0.87072500    0.00000000
 O                  0.05528600    0.71847400    0.00000000

 1 2 1.0 3 1.0
 2
 3

