%mem=30GB
%nprocshared=8
%chk=D:\hetanjin\smallSoftware\github\storageFiles\Templates\Template13\freq\result_C6H12_1_4.chk
#p opt=calcfc freq cbs-qb3 geom=connectivity

C6H12_1_4 using cbs-qb3 to cal. energy

0 1
 C                  1.59983000   -0.33084500   -0.41442800
 H                  1.66777500   -0.40676200   -1.49967000
 C                  0.29420700   -0.76937600    0.18602100
 H                  0.33897000   -0.67999100    1.27820900
 H                  0.14734200   -1.83512300   -0.03525900
 C                 -0.93745500    0.00302400   -0.34188600
 H                 -0.92246200   -0.06423800   -1.43830800
 C                 -2.23522100   -0.65014900    0.15084900
 H                 -2.29408000   -0.62435100    1.24447100
 H                 -3.11328200   -0.12787100   -0.23978500
 H                 -2.30056900   -1.69657000   -0.16170700
 C                 -0.88673800    1.48705000    0.04223800
 H                 -1.73750000    2.03048200   -0.37893500
 H                 -0.92182800    1.60634600    1.13092200
 H                  0.02978500    1.96323900   -0.31350100
 C                  2.64990100    0.12626400    0.26184100
 H                  2.63167400    0.22116700    1.34365800
 H                  3.56702900    0.41786600   -0.23790300

 1 2 1.0 3 1.0 16 2.0
 2
 3 4 1.0 5 1.0 6 1.0
 4
 5
 6 7 1.0 8 1.0 12 1.0
 7
 8 9 1.0 10 1.0 11 1.0
 9
 10
 11
 12 13 1.0 14 1.0 15 1.0
 13
 14
 15
 16 17 1.0 18 1.0
 17
 18

