%mem=30GB
%nprocshared=8
%chk=D:\hetanjin\smallSoftware\github\storageFiles\Templates\Template13\freq\result_TS_3_3b.chk
#p opt=(calcfc,ts) freq cbs-qb3 geom=connectivity

TS_3_3b using cbs-qb3 to cal. energy

0 2
 C                  3.52032000    0.07619000    0.87928100
 H                  3.50492900   -0.97974400    1.15541500
 H                  3.49910300    0.66731600    1.80650100
 H                  4.46510300    0.29605300    0.37544400
 C                  2.33416800    0.42593200    0.00933700
 H                  2.32348400   -0.48449600   -0.97962500
 C                 -0.27551700    0.35345100   -0.10951500
 H                 -0.21765100    0.27191100   -1.19953900
 H                 -0.32669400    1.41903500    0.13513900
 C                 -1.52656700   -0.37321300    0.39973100
 H                 -1.61698100   -0.22935400    1.48576500
 H                 -1.38317200   -1.44649100    0.24221700
 C                 -2.84445600    0.05648700   -0.27113700
 H                 -2.71756900   -0.06743900   -1.35531000
 C                 -3.99268500   -0.86039200    0.17284400
 H                 -4.16546500   -0.77534700    1.25142900
 H                 -4.92672300   -0.60013500   -0.33351400
 H                 -3.77182400   -1.90867700   -0.04713900
 C                  2.32474100    1.83258300   -0.53207700
 H                  2.14006900    2.55944800    0.27256800
 H                  3.29649400    2.08220900   -0.96685800
 H                  1.55903900    1.98552000   -1.29400000
 C                 -3.19411900    1.52712900   -0.00174400
 H                 -4.13954600    1.79756400   -0.48078000
 H                 -3.30392800    1.70931200    1.07339000
 H                 -2.42955300    2.21024000   -0.38030600
 C                  1.00644800   -0.22284200    0.48937300
 H                  0.93992600   -0.23376900    1.58502000
 O                  1.19730200   -1.60852300    0.13032000
 O                  1.69731700   -1.53711500   -1.20061700

 1 2 1.0 3 1.0 4 1.0 5 1.0
 2
 3
 4
 5 19 1.0 27 1.0
 6
 7 8 1.0 9 1.0 10 1.0 27 1.0
 8
 9
 10 11 1.0 12 1.0 13 1.0
 11
 12
 13 14 1.0 15 1.0 23 1.0
 14
 15 16 1.0 17 1.0 18 1.0
 16
 17
 18
 19 20 1.0 21 1.0 22 1.0
 20
 21
 22
 23 24 1.0 25 1.0 26 1.0
 24
 25
 26
 27 28 1.0 29 1.0
 28
 29
 30

