%mem=30GB
%nprocshared=8
%chk=D:\hetanjin\smallSoftware\github\storageFiles\Templates\Template13\freq\result_TS_2d_24.chk
#p opt=(calcfc,ts) freq cbs-qb3 geom=connectivity

TS_2d_24 using b3lyp/6-311++g(d,p) to calculate freq

0 2
 C                 -2.58459100   -0.49352900    1.45759800
 H                 -1.93649600   -0.06830900    2.22845900
 H                 -2.82352000   -1.52419600    1.73884700
 H                 -3.50667400    0.08591400    1.42069300
 C                 -0.50279800   -1.17389000    0.11989300
 H                 -0.15998000   -1.33486600    1.14485100
 H                 -0.52924700   -2.14386600   -0.38955700
 C                  0.36042600   -0.15544200   -0.57462500
 H                  0.33467300   -0.13667700   -1.65982500
 C                  1.47714300    0.58561400    0.07763400
 H                  1.37866700    0.52857600    1.16813400
 H                  1.38703100    1.64635700   -0.19093000
 C                  2.89751500    0.11088700   -0.33137200
 H                  2.96099400    0.17689400   -1.42538300
 C                  3.96076800    1.04453200    0.26097300
 H                  3.93428700    1.02220200    1.35580600
 H                  4.96531900    0.74634500   -0.05247800
 H                  3.80378000    2.07964800   -0.05551200
 C                 -2.78320900   -0.94482500   -1.02778800
 H                 -3.14402800   -1.95931800   -0.83191800
 H                 -3.63964800   -0.27684300   -1.12325100
 H                 -2.24265500   -0.94624200   -1.97759100
 C                  3.15582500   -1.34661700    0.07200900
 H                  4.15345800   -1.66916200   -0.23951700
 H                  3.09310300   -1.46758600    1.15910800
 H                  2.43024200   -2.02685400   -0.38237100
 C                 -1.87884900   -0.46938100    0.10653200
 O                 -1.36425000    0.87002700   -0.20428600
 O                 -2.72809400    1.85601400   -0.20042200
 H                 -2.33393700    2.51556300    0.38499100

 1 2 1.0 3 1.0 4 1.0 27 1.0
 2
 3
 4
 5 6 1.0 7 1.0 8 1.0 27 1.0
 6
 7
 8 9 1.0 10 1.0
 9
 10 11 1.0 12 1.0 13 1.0
 11
 12
 13 14 1.0 15 1.0 23 1.0
 14
 15 16 1.0 17 1.0 18 1.0
 16
 17
 18
 19 20 1.0 21 1.0 22 1.0 27 1.0
 20
 21
 22
 23 24 1.0 25 1.0 26 1.0
 24
 25
 26
 27 28 1.0
 28
 29 30 1.0
 30

