%mem=30GB
%nprocshared=8
%chk=D:\hetanjin\smallSoftware\github\storageFiles\Templates\Template13\freq\result_TS_3_3d.chk
#p opt=(calcfc,ts) freq cbs-qb3 geom=connectivity

TS_3_3d using cbs-qb3 to cal. energy

0 2
 C                 -3.68040600   -0.20144300   -0.23239400
 H                 -3.66404900   -1.25746300    0.03836800
 H                 -3.82327700   -0.13316800   -1.31667900
 H                 -4.54455200    0.26648700    0.24690800
 C                 -2.38404200    0.49697800    0.19577900
 H                 -2.28748100    0.40568500    1.28354600
 C                  0.18558000    0.22044000    0.19385300
 H                  0.02580400   -0.81524400    1.05283200
 H                  0.17742200    1.13378100    0.78588300
 C                  1.42511900   -0.02244300   -0.62521500
 H                  1.48822800    0.75906300   -1.40233900
 H                  1.30529100   -0.97156400   -1.15881900
 C                  2.75422000   -0.04446800    0.15833600
 H                  2.65864400   -0.81442500    0.93463700
 C                  3.90676300   -0.45217600   -0.76896400
 H                  4.04666100    0.28497000   -1.56732100
 H                  4.84801500   -0.52600800   -0.21732000
 H                  3.71652800   -1.42137400   -1.23845500
 C                 -2.41345800    1.98643200   -0.17804700
 H                 -2.50073200    2.11459000   -1.26254000
 H                 -3.27485400    2.47874000    0.28054900
 H                 -1.51765500    2.52031800    0.14978700
 C                  3.05595000    1.29366800    0.84671000
 H                  4.01126700    1.24996000    1.37692900
 H                  3.12170400    2.10418100    0.11222800
 H                  2.29080200    1.56470800    1.57848100
 C                 -1.16020700   -0.19572500   -0.42778100
 H                 -1.17427600   -0.06863000   -1.51831200
 O                 -1.16451700   -1.62952300   -0.24179700
 O                 -0.71555900   -1.79075100    1.10029400

 1 2 1.0 3 1.0 4 1.0 5 1.0
 2
 3
 4
 5 6 1.0 19 1.0 27 1.0
 6
 7 9 1.0 10 1.0 27 1.0
 8
 9
 10 11 1.0 12 1.0 13 1.0
 11
 12
 13 14 1.0 15 1.0 23 1.0
 14
 15 16 1.0 17 1.0 18 1.0
 16
 17
 18
 19 20 1.0 21 1.0 22 1.0
 20
 21
 22
 23 24 1.0 25 1.0 26 1.0
 24
 25
 26
 27 28 1.0 29 1.0
 28
 29
 30

