%mem=30GB
%nprocshared=8
%chk=D:\hetanjin\smallSoftware\github\storageFiles\Templates\Template13\freq\result_TS_3_3g.chk
#p opt=(calcfc,ts) freq cbs-qb3 geom=connectivity

TS_3_3g using B3LYP/6-311++g(d,p) to calc. freq

0 2
 C                  2.76357300   -0.05319900   -1.01680400
 H                  2.51000400   -0.97420400   -1.54095600
 H                  3.56864600   -0.27965700   -0.30873300
 H                  3.15366500    0.66477300   -1.74365300
 C                  1.54467500    0.53389400   -0.28576800
 H                  0.78581500    0.76499200   -1.03781100
 C                 -0.24163400   -0.07473700    1.57708700
 H                 -0.23831900   -0.73351000    2.45089800
 H                  0.02945600    0.91024900    1.96636700
 C                 -1.72788300   -0.04231100    1.11564600
 H                 -2.24945200    0.59327500    1.84147800
 H                 -2.13294200   -1.04575500    1.24515000
 C                 -2.17250100    0.44313500   -0.29295600
 H                 -3.26536000    0.35433400   -0.25517000
 C                 -1.86555300    1.92781200   -0.55646500
 H                 -0.79413400    2.12432800   -0.62443800
 H                 -2.32138600    2.25787200   -1.49394500
 H                 -2.26914000    2.55096800    0.24774600
 C                  1.94469700    1.83735000    0.42288600
 H                  2.63501300    1.63667800    1.24970600
 H                  2.45752400    2.50360900   -0.27587400
 H                  1.08987500    2.38369800    0.82641300
 C                 -1.70792400   -0.45919500   -1.42758100
 H                 -2.47858100   -1.00856300   -1.96546200
 H                 -0.92060800   -0.08547900   -2.08023900
 H                 -1.01770300   -1.53431600   -0.79747700
 C                  0.96367300   -0.50285600    0.71056300
 H                  1.77199200   -0.70774100    1.42652500
 O                  0.82832800   -1.77127600    0.00684700
 O                 -0.49346600   -2.23308700   -0.08311800

 1 2 1.0 3 1.0 4 1.0 5 1.0
 2
 3
 4
 5 6 1.0 19 1.0 27 1.0
 6
 7 8 1.0 9 1.0 10 1.0 27 1.0
 8
 9
 10 11 1.0 12 1.0 13 1.0
 11
 12
 13 14 1.0 15 1.0 23 1.0
 14
 15 16 1.0 17 1.0 18 1.0
 16
 17
 18
 19 20 1.0 21 1.0 22 1.0
 20
 21
 22
 23 24 1.0 25 1.0
 24
 25
 26
 27 28 1.0 29 1.0
 28
 29
 30

