%mem=30GB
%nprocshared=8
%chk=D:\hetanjin\smallSoftware\github\storageFiles\Templates\Template13\freq\result_C9H18OOH_2_26_e.chk
#p opt=calcfc freq cbs-qb3 geom=connectivity

C9H18OOH_2_26_e using cbs-qb3 to cal. energy

0 2
 C                  3.24828900   -0.05459800    1.13693400
 H                  3.15336800   -1.09751200    1.44367700
 H                  3.20540500    0.56791900    2.03435500
 H                  4.22559800    0.08840200    0.66780500
 C                  0.74848500    0.07474100    0.79864200
 H                  0.72127800   -0.96361700    1.13869400
 H                  0.67121400    0.70165900    1.69492000
 C                 -0.46166000    0.32286200   -0.11324200
 H                 -0.33768100   -0.24998600   -1.03998100
 H                 -0.47505100    1.38129800   -0.42646900
 C                 -1.76038200   -0.03063600    0.53463400
 H                 -1.83846000    0.05137000    1.61759000
 C                 -3.03088100   -0.18915800   -0.24481800
 H                 -2.77969400   -0.64875200   -1.21101500
 C                 -4.02595000   -1.11067000    0.47885300
 H                 -4.30295700   -0.69180200    1.45230600
 H                 -4.94411500   -1.23553900   -0.10279300
 H                 -3.59427200   -2.09982800    0.65110400
 C                  2.30893500    1.76188800   -0.33801100
 H                  2.16593400    2.46308100    0.48769800
 H                  3.31446500    1.90082100   -0.74095800
 H                  1.59135100    1.99807600   -1.12443100
 C                 -3.68724000    1.17961400   -0.55255500
 H                 -4.58775700    1.05062400   -1.16191100
 H                 -3.97541900    1.68609500    0.37403200
 H                 -3.00380100    1.83625700   -1.09700400
 C                  2.12887200    0.32529200    0.16267900
 O                  2.26548500   -0.43111400   -1.07014600
 O                  2.10642900   -1.85058100   -0.78887400
 H                  3.00447800   -2.16102000   -0.96415400

 1 2 1.0 3 1.0 4 1.0 27 1.0
 2
 3
 4
 5 6 1.0 7 1.0 8 1.0 27 1.0
 6
 7
 8 9 1.0 10 1.0 11 1.0
 9
 10
 11 12 1.0 13 1.0
 12
 13 14 1.0 15 1.0 23 1.0
 14
 15 16 1.0 17 1.0 18 1.0
 16
 17
 18
 19 20 1.0 21 1.0 22 1.0 27 1.0
 20
 21
 22
 23 24 1.0 25 1.0 26 1.0
 24
 25
 26
 27 28 1.0
 28
 29 30 1.0
 30

