%mem=30GB
%nprocshared=8
%chk=D:\hetanjin\smallSoftware\github\storageFiles\Templates\Template13\freq\C9H18_1_26.chk
#p opt=calcfc freq cbs-qb3 guess=read geom=(connectivity,check)

optimization and freq

0 1
 C                  3.74497900   -0.83891500    0.22775100
 H                  3.61308600   -1.88238600   -0.06492400
 H                  4.05143400   -0.81542200    1.28048300
 H                  4.58132400   -0.42600600   -0.34923900
 C                  1.38429600   -0.60223000   -0.48750000
 H                  1.43859100   -1.66643400   -0.71729200
 C                  0.04453700    0.02276900   -0.76626100
 H                 -0.21644800   -0.15750900   -1.81860300
 H                  0.08699600    1.10668100   -0.64458300
 C                 -1.07361400   -0.56563500    0.11700900
 H                 -0.86993500   -0.31540900    1.16614100
 H                 -1.02737900   -1.65973300    0.05309700
 C                 -2.50082000   -0.11473300   -0.24629100
 H                 -2.66133100   -0.35034100   -1.30764500
 C                 -3.53661000   -0.90108800    0.56940300
 H                 -3.42006600   -0.70448400    1.64082300
 H                 -4.55701100   -0.62177600    0.29064300
 H                 -3.43038300   -1.97902100    0.41581100
 C                 -2.70570300    1.39587100   -0.06318400
 H                 -3.73043300    1.68477400   -0.31463900
 H                 -2.52502400    1.68817800    0.97750300
 H                 -2.03537100    1.98234700   -0.69615000
 C                  2.60853500    1.42068500    0.39863800
 H                  3.39033100    1.91312700   -0.19186600
 H                  1.68416000    1.98173000    0.26513000
 H                  2.90875800    1.51323000    1.44895400
 C                  2.48751700   -0.03198000    0.01149400

 1 2 1.0 3 1.0 4 1.0 27 1.0
 2
 3
 4
 5 6 1.0 7 1.0 27 2.0
 6
 7 8 1.0 9 1.0 10 1.0
 8
 9
 10 11 1.0 12 1.0 13 1.0
 11
 12
 13 14 1.0 15 1.0 19 1.0
 14
 15 16 1.0 17 1.0 18 1.0
 16
 17
 18
 19 20 1.0 21 1.0 22 1.0
 20
 21
 22
 23 24 1.0 25 1.0 26 1.0 27 1.0
 24
 25
 26
 27

