%mem=30GB
%nprocshared=8
%chk=D:\hetanjin\smallSoftware\github\storageFiles\Templates\Template13\freq\result_C9H18O_24_26.chk
#p opt=calcfc freq cbs-qb3 geom=connectivity

C9H18O_24_26 using cbs-qb3 to cal. energy

0 1
 C                  2.66275100   -0.70126100    1.30920600
 H                  1.86610700   -1.13530100    1.91679900
 H                  3.23509900   -0.00313900    1.92844000
 H                  3.33028500   -1.50858200    0.99463800
 C                  0.87637400    0.94104400    0.34785400
 H                  0.51659300    0.92779200    1.37802900
 H                  0.99671400    1.97457800    0.01999300
 C                  0.09789300    0.00258000   -0.59946100
 H                 -0.08379700    0.44844100   -1.58723900
 C                 -1.16139500   -0.70655000   -0.12220200
 H                 -1.04396400   -0.98520700    0.93289100
 H                 -1.21717500   -1.64637500   -0.68393800
 C                 -2.47544900    0.07176200   -0.31813200
 H                 -2.55274600    0.32125900   -1.38533700
 C                 -3.67876600   -0.81060200    0.04173400
 H                 -3.65402800   -1.09154500    1.10023400
 H                 -4.62177200   -0.28680300   -0.14014900
 H                 -3.68759500   -1.73242200   -0.54684100
 C                  3.16747500    0.58378400   -0.80772100
 H                  3.77033000    1.32284000   -0.27049500
 H                  3.82893900   -0.21325900   -1.15801200
 H                  2.72703100    1.06773900   -1.68280100
 C                 -2.51315700    1.38751700    0.47312500
 H                 -3.46377500    1.90649000    0.31902900
 H                 -2.40874400    1.20077700    1.54762000
 H                 -1.71395700    2.07028800    0.17412600
 C                  2.08308200    0.00403600    0.09286900
 O                  1.22795100   -0.90892900   -0.67007700

 1 2 1.0 3 1.0 4 1.0 27 1.0
 2
 3
 4
 5 6 1.0 7 1.0 8 1.0 27 1.0
 6
 7
 8 9 1.0 10 1.0 28 1.0
 9
 10 11 1.0 12 1.0 13 1.0
 11
 12
 13 14 1.0 15 1.0 23 1.0
 14
 15 16 1.0 17 1.0 18 1.0
 16
 17
 18
 19 20 1.0 21 1.0 22 1.0 27 1.0
 20
 21
 22
 23 24 1.0 25 1.0 26 1.0
 24
 25
 26
 27 28 1.0
 28

