%mem=30GB
%nprocshared=8
%chk=D:\hetanjin\smallSoftware\github\storageFiles\Templates\Template13\freq\result_C9H18O_27_26.chk
#p opt=calcfc freq cbs-qb3 geom=connectivity

C9H18O_27_26 using cbs-qb3 to cal. energy

0 1
 C                  1.83919000   -0.19263600   -0.37362100
 C                  1.60029700    1.20683800    0.21483000
 C                  0.20779500    1.81551600   -0.01949400
 C                 -0.92547200    1.08744000    0.72392000
 C                  0.73946500   -1.19581700    0.00022200
 H                  0.23401900    2.85465000    0.32521900
 H                  1.78387800    1.16936100    1.29807700
 H                  2.35670800    1.88630600   -0.19481900
 H                  1.80949600   -0.11446800   -1.46773800
 H                  0.60544200   -1.23500700    1.08977200
 H                  1.04025100   -2.19791100   -0.32157200
 H                 -0.00651200    1.85609800   -1.09258200
 C                  3.21680900   -0.72859600    0.03896800
 H                  3.43031400   -1.69063300   -0.43595100
 H                  4.01121600   -0.03305500   -0.24523100
 H                  3.27779300   -0.87102600    1.12370600
 C                 -1.49989900   -0.16280300    0.01189400
 O                 -0.48284600   -0.92079200   -0.67307700
 H                 -0.56760700    0.81147500    1.72301800
 H                 -1.76107900    1.77508800    0.89123700
 C                 -2.22361900   -1.06558700    1.02208800
 H                 -2.67147500   -1.92031200    0.50979500
 H                 -1.53287600   -1.44473700    1.78016400
 H                 -3.01555000   -0.51690200    1.54053000
 C                 -2.46049200    0.24107300   -1.11108300
 H                 -3.35230000    0.72662800   -0.70644000
 H                 -1.97682300    0.92543200   -1.81134800
 H                 -2.76657200   -0.64722100   -1.66756400

 1 2 1.0 5 1.0 9 1.0 13 1.0
 2 3 1.0 7 1.0 8 1.0
 3 4 1.0 6 1.0 12 1.0
 4 17 1.0 19 1.0 20 1.0
 5 10 1.0 11 1.0 18 1.0
 6
 7
 8
 9
 10
 11
 12
 13 14 1.0 15 1.0 16 1.0
 14
 15
 16
 17 18 1.0 21 1.0 25 1.0
 18
 19
 20
 21 22 1.0 23 1.0 24 1.0
 22
 23
 24
 25 26 1.0 27 1.0 28 1.0
 26
 27
 28

