%mem=30GB
%nprocshared=8
%chk=D:\hetanjin\smallSoftware\github\storageFiles\Templates\Template13\freq\result_C9H18OOH_3_26_f.chk
#p opt=calcfc freq cbs-qb3 guess=read geom=(connectivity,check)

optimization and freq

0 2
 C                  3.49102700    0.12878300   -0.43610500
 H                  3.49110700   -0.79618900   -1.01832100
 H                  3.79733900   -0.09961500    0.58897700
 H                  4.24915200    0.78528200   -0.87222000
 C                  2.11509800    0.80915500   -0.47371700
 H                  1.85671000    0.96914000   -1.52876100
 C                 -0.40869700    0.35120900   -0.32711200
 H                 -0.50831900    0.06867800   -1.38115000
 H                 -0.49895300    1.44040900   -0.28744700
 C                 -1.54854700   -0.29815900    0.49092200
 H                 -1.43414100    0.01269600    1.54003200
 H                 -1.40359700   -1.38185900    0.46792100
 C                 -2.91898200    0.05991400   -0.00591400
 C                 -3.74485200   -0.95591400   -0.72779600
 H                 -4.34545200   -1.56875000   -0.03218900
 H                 -4.45602100   -0.48767200   -1.41729700
 H                 -3.12435600   -1.65306800   -1.29914300
 C                  2.18321600    2.17932100    0.21903400
 H                  2.46429600    2.06735700    1.27167100
 H                  2.93332700    2.81603400   -0.25773700
 H                  1.23036500    2.71240200    0.18273800
 C                 -3.56931700    1.32122300    0.46668700
 H                 -4.24478500    1.74160000   -0.28693400
 H                 -4.18103000    1.15395400    1.37099100
 H                 -2.83446500    2.08955500    0.72661300
 C                  0.99134100   -0.05638800    0.14422400
 H                  1.05110900   -0.01323700    1.23732300
 O                  1.09984100   -1.44833800   -0.22254300
 O                  1.86677100   -2.14630700    0.79515100
 H                  2.68310200   -2.33441900    0.31272700

 1 2 1.0 3 1.0 4 1.0 5 1.0
 2
 3
 4
 5 6 1.0 18 1.0 26 1.0
 6
 7 8 1.0 9 1.0 10 1.0 26 1.0
 8
 9
 10 11 1.0 12 1.0 13 1.0
 11
 12
 13 14 1.0 22 1.0
 14 15 1.0 16 1.0 17 1.0
 15
 16
 17
 18 19 1.0 20 1.0 21 1.0
 19
 20
 21
 22 23 1.0 24 1.0 25 1.0
 23
 24
 25
 26 27 1.0 28 1.0
 27
 28
 29 30 1.0
 30

