%mem=30GB
%nprocshared=8
%chk=D:\hetanjin\smallSoftware\github\storageFiles\Templates\Template13\freq\result_TS_3_3e.chk
#p opt=(calcfc,ts) freq cbs-qb3 geom=connectivity

TS_3_3e using cbs-qb3 to cal. energy

0 2
 C                  2.99193300   -0.00213900   -1.00881200
 H                  2.89036900   -1.06735400   -1.21475500
 H                  3.80927200    0.12846300   -0.29088700
 H                  3.27819500    0.50358000   -1.93504300
 C                  1.68243800    0.58460000   -0.46334200
 H                  0.90296500    0.41541400   -1.21110200
 C                 -0.13060800    0.21402300    1.42502100
 H                 -0.24652500    1.30320500    1.41547000
 H                 -0.11542600   -0.09986600    2.47057900
 C                 -1.28631600   -0.45908000    0.70775100
 H                 -1.93097300   -1.05477100    1.35861600
 H                 -0.56965800   -1.44779200    0.08058400
 C                 -2.05546100    0.28926200   -0.36696800
 H                 -1.33870300    0.84689700   -0.98151900
 C                 -2.81983400   -0.67677400   -1.28477000
 H                 -3.53505800   -1.27541100   -0.71072900
 H                 -3.38059400   -0.13059700   -2.04835700
 H                 -2.13823400   -1.36391800   -1.79234800
 C                  1.82298100    2.09596700   -0.22980100
 H                  2.56770100    2.30781200    0.54533900
 H                  2.15565500    2.58987200   -1.14648300
 H                  0.88415800    2.56767400    0.07053100
 C                 -3.02081500    1.31256500    0.26841800
 H                 -3.54259700    1.88160700   -0.50684900
 H                 -3.77536600    0.80581300    0.87841200
 H                 -2.49425800    2.02457800    0.90934700
 C                  1.27040200   -0.14310000    0.83213300
 H                  2.03168900    0.04985300    1.59675700
 O                  1.31563400   -1.57098400    0.71039400
 O                  0.41175000   -1.96364100   -0.30606200

 1 2 1.0 3 1.0 4 1.0 5 1.0
 2
 3
 4
 5 6 1.0 19 1.0 27 1.0
 6
 7 8 1.0 9 1.0 10 1.0 27 1.0
 8
 9
 10 11 1.0 13 1.0
 11
 12
 13 14 1.0 15 1.0 23 1.0
 14
 15 16 1.0 17 1.0 18 1.0
 16
 17
 18
 19 20 1.0 21 1.0 22 1.0
 20
 21
 22
 23 24 1.0 25 1.0 26 1.0
 24
 25
 26
 27 28 1.0 29 1.0
 28
 29
 30

