%mem=30GB
%nprocshared=8
%chk=D:\hetanjin\smallSoftware\github\storageFiles\Templates\Template13\freq\result_C9H18OOH_3_26_e.chk
#p opt=calcfc freq cbs-qb3 guess=read geom=(connectivity,check)

optimization and freq

0 2
 C                  3.53071500    0.10914900   -0.10646800
 H                  3.64674000   -0.82926900   -0.65433400
 H                  3.64433400   -0.09102300    0.96284400
 H                  4.34999200    0.76567100   -0.41245900
 C                  2.17956600    0.76996700   -0.41410500
 H                  2.11660200    0.89884600   -1.50274300
 C                 -0.32813200    0.28886800   -0.71731200
 H                 -0.18168100    0.03943100   -1.78356600
 H                 -0.44724500    1.37778600   -0.68935700
 C                 -1.54864000   -0.38336000   -0.18398500
 H                 -1.44347000   -1.38395500    0.22183400
 C                 -2.90743600    0.24463100   -0.26368600
 H                 -2.96600000    0.82122100   -1.19982900
 C                 -4.02025300   -0.81397300   -0.28943500
 H                 -4.00291900   -1.41344200    0.62681400
 H                 -5.00761300   -0.34918100   -0.36521800
 H                 -3.89897000   -1.49486000   -1.13591800
 C                  2.11023800    2.15841800    0.24181100
 H                  2.18848900    2.07556600    1.33101900
 H                  2.93440200    2.78906800   -0.10219300
 H                  1.17956000    2.68323300    0.01358600
 C                 -3.14005300    1.24951700    0.89112000
 H                 -4.10844500    1.74902000    0.78292600
 H                 -3.12743700    0.73468700    1.85636000
 H                 -2.36515000    2.02059900    0.91230100
 C                  0.96954000   -0.09368200    0.01249300
 H                  0.82312600   -0.02337600    1.09493400
 O                  1.14592200   -1.49086300   -0.29575200
 O                  1.72735900   -2.15582900    0.85833400
 H                  2.60617200   -2.37369900    0.51973900

 1 2 1.0 3 1.0 4 1.0 5 1.0
 2
 3
 4
 5 6 1.0 18 1.0 26 1.0
 6
 7 8 1.0 9 1.0 10 1.0 26 1.0
 8
 9
 10 11 1.0 12 1.0
 11
 12 13 1.0 14 1.0 22 1.0
 13
 14 15 1.0 16 1.0 17 1.0
 15
 16
 17
 18 19 1.0 20 1.0 21 1.0
 19
 20
 21
 22 23 1.0 24 1.0 25 1.0
 23
 24
 25
 26 27 1.0 28 1.0
 27
 28
 29 30 1.0
 30

