%mem=30GB
%nprocshared=8
%chk=D:\hetanjin\smallSoftware\Kuaipan\farnesane\dimethylheptane\calculationResult\thermo\Templates\Template13\freq\result_TS_4_C9H18O_4.chk
#p opt=(calcfc,ts) freq cbs-qb3 geom=connectivity

TS_4_C9H18O_4 using B3LYP/6-311++g(d,p) to cal. freq

0 2
 C                 -3.80462100   -1.01686100   -0.00104000
 H                 -3.71803200   -1.79797400    0.75979500
 H                 -3.90130200   -1.50787900   -0.97588300
 H                 -4.73247700   -0.46966400    0.18625500
 C                 -2.59568900   -0.07123500    0.02583100
 H                 -2.52104000    0.36201500    1.02810100
 C                 -1.29863000   -0.86555600   -0.22533600
 H                 -1.34760500   -1.80899700    0.33933700
 H                 -1.22721400   -1.14402500   -1.28301100
 C                  1.29862500   -0.86554500   -0.22536900
 H                  1.22720600   -1.14395500   -1.28305900
 H                  1.34758900   -1.80902000    0.33925000
 C                  2.59569400   -0.07125600    0.02584600
 H                  2.52105900    0.36191700    1.02815000
 C                  3.80461400   -1.01689500   -0.00111000
 H                  3.90128500   -1.50783300   -0.97599400
 H                  4.73247800   -0.46972500    0.18622700
 H                  3.71802000   -1.79807000    0.75966100
 C                 -2.77941800    1.07046000   -0.98356100
 H                 -2.84476200    0.68254000   -2.00642600
 H                 -3.70170900    1.62105800   -0.77866900
 H                 -1.95837500    1.78869900   -0.94154800
 C                  2.77942800    1.07051500   -0.98345800
 H                  3.70173800    1.62107200   -0.77854400
 H                  2.84473800    0.68267800   -2.00635700
 H                  1.95840500    1.78877200   -0.94136500
 C                  0.00000000   -0.20462400    0.19500100
 H                 -0.00001200    1.09006200   -0.10990000
 O                  0.00000900    0.24808400    1.52579600
 O                 -0.00001000    1.66245400    1.03584900

 1 2 1.0 3 1.0 4 1.0 5 1.0
 2
 3
 4
 5 6 1.0 7 1.0 19 1.0
 6
 7 8 1.0 9 1.0 27 1.0
 8
 9
 10 11 1.0 12 1.0 13 1.0 27 1.0
 11
 12
 13 14 1.0 15 1.0 23 1.0
 14
 15 16 1.0 17 1.0 18 1.0
 16
 17
 18
 19 20 1.0 21 1.0 22 1.0
 20
 21
 22
 23 24 1.0 25 1.0 26 1.0
 24
 25
 26
 27 29 1.0
 28
 29
 30

