%mem=30GB
%nprocshared=8
%chk=D:\hetanjin\smallSoftware\github\storageFiles\Templates\Template13\freq\result_TS_2f_26.chk
#p opt=(calcfc,ts) freq cbs-qb3 geom=connectivity

TS_2f_26 using cbs-qb3 to cal. energy

0 2
 C                 -2.49392700   -0.09393400   -1.07479800
 H                 -2.05372500   -0.21935600   -2.06671100
 H                 -3.23488800    0.70994300   -1.11995800
 H                 -2.99257100   -1.02240100   -0.80178200
 C                 -0.74059300    1.58269400   -0.47456300
 H                 -0.54213500    1.54498900   -1.55145300
 H                 -1.50886400    2.34949700   -0.32881700
 C                  0.54059700    2.01535300    0.24702500
 H                  0.44521500    1.86975500    1.32741900
 H                  0.67811000    3.09144700    0.09793900
 C                  1.79995200    1.29969700   -0.28042400
 H                  2.68161700    1.74213500    0.21143000
 H                  1.89858600    1.51752300   -1.34897900
 C                  1.80911000   -0.18232000   -0.06232100
 C                  2.15415000   -1.09990200   -1.18861200
 H                  3.24268100   -1.26789400   -1.23646200
 H                  1.67644100   -2.07365700   -1.05273300
 H                  1.83743400   -0.69679400   -2.15226200
 C                 -1.98184900    0.32441800    1.36339500
 H                 -2.77142800    1.07914500    1.42238900
 H                 -2.40897800   -0.64222700    1.63217400
 H                 -1.21180500    0.57592800    2.09675400
 C                  2.07397600   -0.68290700    1.32160700
 H                  1.69959500   -1.70117000    1.45463400
 H                  3.15889200   -0.71267400    1.51368800
 H                  1.62603400   -0.04663200    2.08790800
 C                 -1.39906700    0.24549500   -0.05430700
 O                 -0.36496400   -0.76383300   -0.09868300
 O                 -1.14528100   -2.24962800    0.10887300
 H                 -0.71234800   -2.44143400    0.95128600

 1 2 1.0 3 1.0 4 1.0 27 1.0
 2
 3
 4
 5 6 1.0 7 1.0 8 1.0 27 1.0
 6
 7
 8 9 1.0 10 1.0 11 1.0
 9
 10
 11 12 1.0 13 1.0 14 1.0
 12
 13
 14 15 1.0 23 1.0
 15 16 1.0 17 1.0 18 1.0
 16
 17
 18
 19 20 1.0 21 1.0 22 1.0 27 1.0
 20
 21
 22
 23 24 1.0 25 1.0 26 1.0
 24
 25
 26
 27 28 1.0
 28
 29 30 1.0
 30

