%mem=30GB
%nprocshared=8
%chk=D:\hetanjin\smallSoftware\github\storageFiles\Templates\Template13\freq\result_C9H18O_12_26.chk
#p opt=calcfc freq cbs-qb3 geom=connectivity

C9H18O_12_26 using cbs-qb3 to cal. energy

0 1
 C                 -3.58270200   -1.00768100   -0.39801700
 H                 -3.51138100   -1.93820000    0.17328200
 H                 -3.61365000   -1.26529300   -1.46110200
 H                 -4.51917300   -0.51548900   -0.13018300
 C                 -1.04041300   -0.74073100   -0.35536500
 H                 -0.99778600   -1.66772800    0.23161300
 H                 -1.00319300   -1.04861800   -1.40788700
 C                  0.18154200    0.11967400   -0.01815700
 H                  0.05428700    0.52925500    0.98933700
 H                  0.22808600    0.97175200   -0.70356500
 C                  1.49286800   -0.67274000   -0.08908500
 H                  1.62974800   -1.07133500   -1.10410400
 H                  1.40722000   -1.54592000    0.56965200
 C                  2.75585200    0.11403000    0.31006500
 H                  2.57361000    0.54855100    1.30249900
 C                  3.96228200   -0.82826500    0.42608500
 H                  4.18506800   -1.29811900   -0.53833700
 H                  4.85834000   -0.28837800    0.74591300
 H                  3.77647000   -1.62705700    1.15005000
 C                 -2.59990100    1.34621300   -0.07775400
 H                 -3.58266900    1.75013900   -0.31265500
 H                 -1.76873600    2.01967200   -0.26662800
 C                  3.06470700    1.26450500   -0.65903700
 H                  3.96879000    1.79967200   -0.35439300
 H                  3.23144800    0.88311300   -1.67284700
 H                  2.25254900    1.99388000   -0.70525700
 C                 -2.40136800   -0.11170900   -0.09147600
 O                 -2.52077700    0.60879100    1.15138200

 1 2 1.0 3 1.0 4 1.0 27 1.0
 2
 3
 4
 5 6 1.0 7 1.0 8 1.0 27 1.0
 6
 7
 8 9 1.0 10 1.0 11 1.0
 9
 10
 11 12 1.0 13 1.0 14 1.0
 12
 13
 14 15 1.0 16 1.0 23 1.0
 15
 16 17 1.0 18 1.0 19 1.0
 17
 18
 19
 20 21 1.0 22 1.0 27 1.0 28 1.0
 21
 22
 23 24 1.0 25 1.0 26 1.0
 24
 25
 26
 27 28 1.0
 28

