%mem=30GB
%nprocshared=8
%chk=D:\hetanjin\smallSoftware\Kuaipan\farnesane\dimethylheptane\calculationResult\thermo\Templates\Template13\freq\result_TS_4_4a.chk
#p opt=(calcfc,ts) freq cbs-qb3 geom=connectivity

TS_4_4a using cbs-qb3 to cal. energy

0 2
 C                 -3.72675700    0.44476400    0.90272600
 H                 -3.43822600    1.35404200    1.43753600
 H                 -3.90900400   -0.33795500    1.64797900
 H                 -4.67407400    0.64241100    0.39276100
 C                 -2.64029000    0.01546300   -0.09263200
 H                 -2.48096800    0.83998700   -0.79658500
 C                 -1.30656700   -0.22164300    0.63929400
 H                 -1.12204900    0.60006500    1.33877000
 H                 -1.37413700   -1.13832900    1.24032900
 C                  1.18867200   -0.76142000    0.49631200
 H                  1.13200900   -1.84893900    0.61057100
 H                  1.17885400   -0.34457400    1.50954100
 C                  2.52145400   -0.38184500   -0.19266400
 H                  2.39313800   -0.49408800   -1.27461400
 C                  2.89514700    1.05750100    0.09586200
 H                  3.13928000    1.27809100    1.13640500
 H                  3.54697800    1.55551300   -0.62031100
 H                  1.67046700    1.72899300   -0.03732900
 C                 -3.09574900   -1.21563500   -0.88949100
 H                 -3.26337400   -2.07076800   -0.22472000
 H                 -4.03466600   -1.01510000   -1.41336700
 H                 -2.36310100   -1.51647400   -1.64321600
 C                  3.66158100   -1.32187400    0.25205300
 H                  4.61042100   -1.04375900   -0.21414300
 H                  3.79680700   -1.28438300    1.33740300
 H                  3.43822200   -2.35633000   -0.02641600
 C                 -0.07713100   -0.31958900   -0.26321200
 H                 -0.25493400   -1.01722000   -1.08844600
 O                  0.13391300    0.90705300   -1.00347400
 O                  0.55186100    1.92975800   -0.12173100

 1 2 1.0 3 1.0 4 1.0 5 1.0
 2
 3
 4
 5 6 1.0 7 1.0 19 1.0
 6
 7 8 1.0 9 1.0 27 1.0
 8
 9
 10 11 1.0 12 1.0 13 1.0 27 1.0
 11
 12
 13 14 1.0 15 1.0 23 1.0
 14
 15 16 1.0 17 1.0
 16
 17
 18
 19 20 1.0 21 1.0 22 1.0
 20
 21
 22
 23 24 1.0 25 1.0 26 1.0
 24
 25
 26
 27 28 1.0 29 1.0
 28
 29
 30

