%mem=30GB
%nprocshared=8
%chk=D:\hetanjin\smallSoftware\github\storageFiles\Templates\Template13\freq\result_TS_3_C9H18_2.chk
#p opt=(calcfc,ts) freq cbs-qb3 geom=connectivity

TS_3_C9H18_2 using B3LYP/6-311++g(d,p) to calc. freq

0 2
 C                 -3.36236000   -0.62567200    1.15387800
 H                 -3.21804900    0.09734800    1.96031900
 H                 -3.40592200   -1.62554200    1.59953900
 H                 -4.33688100   -0.42781700    0.69859700
 C                 -2.23926600   -0.53667600    0.11791700
 H                 -2.45155300    0.64398100   -0.41530300
 C                  0.33186400   -0.52110500   -0.10943500
 H                  0.24051200   -0.35024900   -1.18794100
 H                  0.49403300   -1.60374300    0.00214500
 C                  1.53802500    0.25175300    0.44013800
 H                  1.65566500    0.02651100    1.50891600
 H                  1.31971200    1.32109400    0.37019500
 C                  2.87010000   -0.03145500   -0.27848200
 H                  2.71466900    0.15648400   -1.34985700
 C                  3.95602400    0.93649100    0.21158100
 H                  4.15108500    0.79512400    1.28033900
 H                  4.89816800    0.77731600   -0.32079100
 H                  3.65756300    1.97796300    0.06248400
 C                 -2.40067700   -1.49027300   -1.06537100
 H                 -2.26257300   -2.53132300   -0.75151900
 H                 -3.40482900   -1.40777000   -1.48926500
 H                 -1.68769400   -1.28611800   -1.86604000
 C                  3.33333500   -1.48668000   -0.11638500
 H                  3.47636600   -1.73239300    0.94192900
 H                  4.28732900   -1.65133600   -0.62544400
 H                  2.61608700   -2.19981800   -0.53086800
 C                 -0.96149400   -0.18915400    0.57128800
 H                 -0.87777400    0.20942800    1.57830800
 O                 -1.07183900    1.97571100   -0.15600500
 O                 -2.21056400    1.89522500   -0.72105900

 1 2 1.0 3 1.0 4 1.0 5 1.0
 2
 3
 4
 5 19 1.0 27 1.5
 6
 7 8 1.0 9 1.0 10 1.0 27 1.0
 8
 9
 10 11 1.0 12 1.0 13 1.0
 11
 12
 13 14 1.0 15 1.0 23 1.0
 14
 15 16 1.0 17 1.0 18 1.0
 16
 17
 18
 19 20 1.0 21 1.0 22 1.0
 20
 21
 22
 23 24 1.0 25 1.0 26 1.0
 24
 25
 26
 27 28 1.0
 28
 29 30 1.0
 30

