%mem=30GB
%nprocshared=8
%chk=D:\hetanjin\smallSoftware\github\storageFiles\Templates\Template13\freq\result_C9H18O_3_26.chk
#p opt=calcfc freq cbs-qb3 guess=read geom=(connectivity,check)

optimization and freq

0 1
 C                  3.58342100   -0.59277600   -0.74407600
 H                  3.31238100   -1.18435200   -1.62272900
 H                  3.78404100   -1.28622500    0.07467900
 H                  4.50144100   -0.04549600   -0.97414900
 C                  2.46114000    0.37515000   -0.35421100
 H                  2.21659000    1.01720900   -1.20858600
 C                 -0.13417500    0.21807800   -0.39024300
 H                 -0.15796000    0.14421700   -1.48790900
 H                 -0.10463400    1.29400300   -0.18135000
 C                 -1.36337500   -0.45413100    0.22030900
 H                 -1.36783200   -0.28204900    1.30351000
 H                 -1.25800000   -1.53555800    0.09538500
 C                 -2.70928600   -0.00001100   -0.37351700
 H                 -2.66317500   -0.15591500   -1.46064200
 C                 -3.85202900   -0.86676600    0.17322200
 H                 -3.94313100   -0.75205800    1.25875400
 H                 -4.81107500   -0.58597500   -0.27171200
 H                 -3.68165400   -1.92681600   -0.03524300
 C                 -2.99389000    1.48815500   -0.12329000
 H                 -3.96161400    1.77749600   -0.54302900
 H                 -3.02119300    1.70219200    0.95104800
 H                 -2.23652500    2.13526300   -0.57343700
 C                  1.19230400   -0.38459400    0.05194300
 O                  1.25287600   -1.40340600    0.70434000
 C                  2.88111300    1.28147100    0.82130700
 H                  2.08931600    1.98210500    1.10143500
 H                  3.12402700    0.67525000    1.69773400
 H                  3.76465000    1.86650700    0.55285400

 1 2 1.0 3 1.0 4 1.0 5 1.0
 2
 3
 4
 5 6 1.0 23 1.0 25 1.0
 6
 7 8 1.0 9 1.0 10 1.0 23 1.0
 8
 9
 10 11 1.0 12 1.0 13 1.0
 11
 12
 13 14 1.0 15 1.0 19 1.0
 14
 15 16 1.0 17 1.0 18 1.0
 16
 17
 18
 19 20 1.0 21 1.0 22 1.0
 20
 21
 22
 23 24 2.0
 24
 25 26 1.0 27 1.0 28 1.0
 26
 27
 28

