%nprocshared=12
%mem=30GB
# cbs-qb3 geom=connectivity

Title Card Required

0 2
 C                 -3.57208200   -0.85143700   -0.44467400
 H                 -3.88376200   -0.91556600   -1.49298400
 H                 -4.48192700   -0.95453400    0.15714400
 H                 -2.93470100   -1.71091100   -0.23200100
 C                 -2.90433000    0.46551700   -0.17101300
 H                 -3.51281600    1.33946500   -0.39487600
 C                 -1.68022900    0.68770300    0.31156400
 H                 -1.36838000    1.71967200    0.44866800
 C                 -0.65022000   -0.33806300    0.69968600
 H                 -0.45769300   -0.28002900    1.77897700
 H                 -1.00011000   -1.35315300    0.49950100
 C                  0.68953300   -0.15167900   -0.01942700
 H                  0.55151700   -0.02636000   -1.09530900
 C                  1.71058000   -1.24558600    0.28840800
 H                  1.24996800   -2.20412200    0.02353300
 H                  1.87694900   -1.26856900    1.37113200
 C                  3.04277400   -1.08854300   -0.44869500
 H                  3.52928000   -0.14477500   -0.19556100
 H                  3.72437500   -1.90064100   -0.18377000
 H                  2.90118500   -1.10831900   -1.53282100
 O                  1.23134200    1.13608600    0.45468700
 O                  1.76740400    1.85646000   -0.51052700

 1 2 1.0 3 1.0 4 1.0 5 1.0
 2
 3
 4
 5 6 1.0 7 2.0
 6
 7 8 1.0 9 1.0
 8
 9 10 1.0 11 1.0 12 1.0
 10
 11
 12 13 1.0 14 1.0 21 1.0
 13
 14 15 1.0 16 1.0 17 1.0
 15
 16
 17 18 1.0 19 1.0 20 1.0
 18
 19
 20
 21 22 1.0
 22

