%mem=30GB
%nprocshared=8
%chk=D:\hetanjin\smallSoftware\Kuaipan\farnesane\dimethylheptane\calculationResult\thermo\Templates\Template13\freq\result_TS_4_C9H18_3.chk
#p opt=(calcfc,ts) freq cbs-qb3 geom=connectivity

TS_4_C9H18_3 using B3LYP/6-311++g(d,p) to calc. freq

0 2
 C                 -3.40994900   -0.65903300    0.53443700
 H                 -3.70057100    0.38833700    0.64869400
 H                 -3.26520600   -1.07909700    1.53577000
 H                 -4.24538500   -1.19081900    0.07093000
 C                 -2.13335200   -0.80069000   -0.30741000
 H                 -2.32191100   -0.33986400   -1.28534600
 C                 -0.95747300   -0.05035100    0.32987300
 H                 -1.44782100    1.15883700    0.54895100
 H                 -0.71943800   -0.35628800    1.35260900
 C                  1.48480000    0.70173000    0.10205000
 H                  1.44258400    0.81560200    1.19148100
 H                  1.81565000    1.66174700   -0.30645800
 C                  2.55172000   -0.36706500   -0.25760000
 H                  2.50633300   -0.52656400   -1.34304400
 C                  3.95257800    0.16091600    0.08057900
 H                  4.04692700    0.35834100    1.15379400
 H                  4.72203300   -0.56710900   -0.19141900
 H                  4.16795000    1.09242800   -0.45030300
 C                 -1.79493200   -2.28234200   -0.53831600
 H                 -1.56868100   -2.78281700    0.40918200
 H                 -2.63563200   -2.80910700   -0.99993400
 H                 -0.92597800   -2.39488200   -1.19209500
 C                  2.29237400   -1.71112400    0.43399500
 H                  3.04806800   -2.44778100    0.14692100
 H                  2.33429000   -1.60119200    1.52324600
 H                  1.31302400   -2.12026600    0.17756100
 C                  0.11786500    0.40244600   -0.43288800
 H                  0.02218900    0.40488500   -1.51584600
 O                 -0.58854100    2.55844600   -0.47654800
 O                 -1.56273500    2.43763900    0.33367100

 1 2 1.0 3 1.0 4 1.0 5 1.0
 2
 3
 4
 5 6 1.0 7 1.0 19 1.0
 6
 7 9 1.0 27 1.5
 8
 9
 10 11 1.0 12 1.0 13 1.0 27 1.0
 11
 12
 13 14 1.0 15 1.0 23 1.0
 14
 15 16 1.0 17 1.0 18 1.0
 16
 17
 18
 19 20 1.0 21 1.0 22 1.0
 20
 21
 22
 23 24 1.0 25 1.0 26 1.0
 24
 25
 26
 27 28 1.0
 28
 29 30 1.0
 30

