%mem=30GB
%nprocshared=8
%chk=D:\hetanjin\smallSoftware\github\storageFiles\Templates\Template13\freq\result_TS_2c_2.chk
#p opt=(calcfc,ts) freq cbs-qb3 geom=connectivity

TS_2c_2 using b3lyp/6-311++g(d,p) to calculate freq

0 2
 C                  3.23131400   -0.59267300   -0.83838600
 H                  3.23984800    0.19824100   -1.59083000
 H                  3.46795100   -1.53700600   -1.34044900
 H                  4.02407600   -0.40057500   -0.11048300
 C                  0.74765400   -0.46917700   -0.93884900
 H                  0.89472600    0.05306800   -1.88182400
 C                 -0.67412000   -0.69268200   -0.53693600
 H                 -0.73352000   -1.33322500    0.34519700
 H                 -1.18313500   -1.22887200   -1.34845800
 C                 -1.41334200    0.64319100   -0.27454700
 H                 -1.32346100    1.27032700   -1.16954900
 H                 -0.87971300    1.17162400    0.52052500
 C                 -2.90722300    0.52492500    0.09603800
 H                 -3.25713900    1.55613200    0.23591100
 C                 -3.75372900   -0.09021300   -1.02794700
 H                 -3.50731800   -1.14408500   -1.19091000
 H                 -4.81922700   -0.04093100   -0.78469300
 H                 -3.60372800    0.43858100   -1.97428400
 C                  1.83828100   -1.55747000    1.07170100
 H                  1.79755200   -2.61460300    0.78711200
 H                  2.73055200   -1.40175800    1.67959900
 H                  0.96836900   -1.33657000    1.69055300
 C                 -3.13085300   -0.21024400    1.42570800
 H                 -4.18234100   -0.16391000    1.72421500
 H                 -2.86065800   -1.26836200    1.35330400
 H                 -2.53551100    0.23362900    2.22908200
 C                  1.88550200   -0.68031000   -0.15788400
 O                  1.88742400    0.96372000    0.86028500
 O                  2.30634600    2.07060300    0.10787600
 H                  3.27159600    2.02163900    0.16730600

 1 2 1.0 3 1.0 4 1.0 27 1.0
 2
 3
 4
 5 6 1.0 7 1.0 27 1.5
 6
 7 8 1.0 9 1.0 10 1.0
 8
 9
 10 11 1.0 12 1.0 13 1.0
 11
 12
 13 14 1.0 15 1.0 23 1.0
 14
 15 16 1.0 17 1.0 18 1.0
 16
 17
 18
 19 20 1.0 21 1.0 22 1.0 27 1.0
 20
 21
 22
 23 24 1.0 25 1.0 26 1.0
 24
 25
 26
 27
 28
 29 30 1.0
 30

