%mem=30GB
%nprocshared=8
%chk=D:\hetanjin\smallSoftware\github\storageFiles\Templates\Template13\freq\result_TS_2d_1.chk
#p opt=(calcfc,ts) freq cbs-qb3 geom=connectivity

TS_2d_1 using b3lyp/6-311++g(d,p) to calculate freq

0 2
 C                  2.16199300   -1.83577400   -0.63259200
 H                  3.06273400   -2.32003900   -0.24603700
 H                  2.25331000   -1.75298200   -1.71632200
 H                  1.29387300   -2.45470200   -0.38631100
 C                  0.50564600    0.20672400   -0.71919600
 H                  0.57656300    1.21583700   -0.32079500
 H                  0.79759500    0.16564900   -1.76699200
 C                 -0.67596400   -0.50437400   -0.39950300
 H                 -0.96064200   -1.34402000   -1.02958600
 C                 -1.54044100   -0.23129700    0.78595900
 H                 -1.08891300    0.55409900    1.39919500
 H                 -1.60131500   -1.13329500    1.41295100
 C                 -3.00419700    0.18506400    0.44586100
 H                 -3.49526200    0.33792000    1.41491800
 C                 -3.77210300   -0.92014600   -0.29074600
 H                 -3.73777300   -1.86641600    0.25786900
 H                 -4.82336700   -0.64370000   -0.41043200
 H                 -3.36600800   -1.09526200   -1.29149000
 C                  1.84947300   -0.47570000    1.52565900
 H                  2.76694700   -0.87861300    1.96556600
 H                  1.71852400    0.54194500    1.89345700
 H                  1.00962200   -1.09596300    1.84507800
 C                 -3.05589600    1.51270300   -0.31991600
 H                 -4.09084700    1.82907900   -0.47833500
 H                 -2.54284700    2.30900300    0.22687400
 H                 -2.57973100    1.42384700   -1.30110800
 C                  2.00598000   -0.45102400    0.00656400
 O                  2.99006700    0.32615600   -0.42309800
 O                  2.56885700    2.04885000   -0.03650600
 H                  3.48921400    2.29051400   -0.20421300

 1 2 1.0 3 1.0 4 1.0 27 1.0
 2
 3
 4
 5 6 1.0 7 1.0 8 1.5
 6
 7
 8 9 1.0 10 1.0
 9
 10 11 1.0 12 1.0 13 1.0
 11
 12
 13 14 1.0 15 1.0 23 1.0
 14
 15 16 1.0 17 1.0 18 1.0
 16
 17
 18
 19 20 1.0 21 1.0 22 1.0 27 1.0
 20
 21
 22
 23 24 1.0 25 1.0 26 1.0
 24
 25
 26
 27 28 1.5
 28
 29 30 1.0
 30

