%mem=30GB
%nprocshared=8
%chk=D:\hetanjin\smallSoftware\github\storageFiles\Templates\Template13\freq\result_TS_3_3f.chk
#p opt=(calcfc,ts) freq cbs-qb3 geom=connectivity

TS_3_3f using cbs-qb3 to cal. energy

0 2
 C                 -3.19008100   -1.13443400    0.13001700
 H                 -2.64770700   -2.07010100    0.26876500
 H                 -3.61106200   -1.13376100   -0.88188700
 H                 -4.02481900   -1.11179500    0.83613900
 C                 -2.27073400    0.07564500    0.34201600
 H                 -1.89852100    0.04895600    1.37278200
 C                 -0.05111100    1.17331600   -0.41569200
 H                 -0.01198000    1.48568000    0.63203600
 H                 -0.45749800    2.02047900   -0.97402400
 C                  1.37612000    0.87047700   -0.92165500
 H                  1.88330000    1.82112300   -1.14093700
 H                  1.31502900    0.32779000   -1.86950100
 C                  2.24353700    0.08337900    0.06196800
 H                  1.32287300   -0.73729500    0.59188900
 C                  3.25035400   -0.84866600   -0.57525000
 H                  4.00176800   -0.27555300   -1.13880300
 H                  3.78333100   -1.44002900    0.17380800
 H                  2.76635100   -1.53386900   -1.27566700
 C                 -3.04126700    1.38774500    0.13128700
 H                 -3.37323300    1.48660300   -0.90855000
 H                 -3.93422900    1.40861200    0.76176600
 H                 -2.44474700    2.26849300    0.37935300
 C                  2.76363300    0.87534600    1.24428200
 H                  3.20403300    0.22192000    2.00201800
 H                  3.54839000    1.57396200    0.91843400
 H                  1.97940200    1.46654000    1.72331300
 C                 -1.03085700   -0.00704600   -0.56519900
 H                 -1.35081900   -0.07925900   -1.61300800
 O                 -0.34864000   -1.27343400   -0.40301800
 O                  0.30521300   -1.30194900    0.84694600

 1 2 1.0 3 1.0 4 1.0 5 1.0
 2
 3
 4
 5 6 1.0 19 1.0 27 1.0
 6
 7 8 1.0 9 1.0 10 1.0 27 1.0
 8
 9
 10 11 1.0 12 1.0 13 1.0
 11
 12
 13 15 1.0 23 1.0
 14
 15 16 1.0 17 1.0 18 1.0
 16
 17
 18
 19 20 1.0 21 1.0 22 1.0
 20
 21
 22
 23 24 1.0 25 1.0 26 1.0
 24
 25
 26
 27 28 1.0 29 1.0
 28
 29
 30

