%mem=28GB
%nprocshared=12
%chk=RO2_1_5_8_2_scan_b3631gd.chk
#p ub3lyp/6-31g(d) opt=modredundant nosym

using ub3lyp/6-31G(d) to scan

0 2
C -2.29723400 -0.10580000 0.15594700
H -2.34624100 -0.15272600 1.24780300
H -2.66453700 0.87747700 -0.15299000
H -2.98717400 -0.85473500 -0.23877300
C -0.87464300 -0.35954800 -0.35093800
H -0.53071800 -1.35070000 -0.04315200
H -0.85067200 -0.33369100 -1.44491600
C 0.11072400 0.66721600 0.18633000
H -0.11191500 1.67811100 -0.16229200
H 0.16526400 0.65379800 1.27702700
O 1.45903800 0.41876300 -0.31555000
O 2.00257600 -0.63485600 0.26170700

D 1 5 8 11 S 40 10.0





