%nprocshared=12
%mem=30GB
# opt freq b3lyp/6-311++g(d,p)

Title Card Required

0 1
 C                 -3.87738844   -0.71656050    0.00000000
 H                 -3.52073401   -1.72537050    0.00000000
 H                 -3.52071560   -0.21216231   -0.87365150
 H                 -4.94738844   -0.71654731    0.00000000
 C                 -3.36404622    0.00939577    1.25740497
 H                 -3.72054127    1.01826210    1.25730739
 H                 -3.72087847   -0.49489003    2.13105625
 C                 -1.82404625    0.00913301    1.25754524
 H                 -1.46721427    0.51338619    0.38387502
 H                 -1.46755154   -0.99973344    1.25768017
 C                 -1.31070402    0.73513598    2.51492324
 H                 -1.66754238    0.23088642    3.38859295
 H                 -1.66719295    1.74400447    2.51478507
 C                  0.22929595    0.73486476    2.51506840
 H                  0.58613347    1.23911533    1.64139893
 H                  0.58596880    1.23929409    3.38870192
 H                  0.58578512   -0.27400365    2.51520522

