%mem=28GB
%nprocshared=12
%chk=C2H6_1_opt_631gd.chk
#p ub3lyp/6-31g(d) opt freq

using ub3lyp/6-31G(d) to scan

0 1
 C                 -3.24044578   -0.35031847    0.00000000
 H                 -2.88379135   -1.35912847    0.00000000
 H                 -2.88377294    0.15407972   -0.87365150
 H                 -4.31044578   -0.35030528    0.00000000
 C                 -2.72710356    0.37563781    1.25740497
 H                 -3.08215990    1.38501090    1.25642745
 H                 -3.08537267   -0.12763063    2.13105486
 H                 -1.65710537    0.37393112    1.25838372





