%mem=28GB
%nprocshared=12
%chk=QOOH_1d_6_cbs.chk
#p cbs-qb3

using ub3lyp/6-31G(d) to scan

0 2
C	2.879359	-2.140534	-0.237324
H	2.399731	-2.895746	-0.863272
H	2.951120	-2.547139	0.777118
H	3.896617	-1.987207	-0.610256
C	2.070089	-0.831621	-0.249973
H	2.034837	-0.450168	-1.277134
C	0.670684	-1.032482	0.242415
H	0.530461	-1.676566	1.109094
C	-0.473380	-0.186355	-0.208445
H	-0.425166	-0.056526	-1.299854
H	-0.349162	0.829255	0.198462
C	-1.847504	-0.748332	0.184104
H	-1.910253	-0.818002	1.278741
H	-1.923414	-1.776068	-0.190854
C	-3.055279	0.054214	-0.334470
H	-2.949041	0.143561	-1.424590
C	-4.362516	-0.699813	-0.053081
H	-4.520871	-0.816677	1.024787
H	-5.225909	-0.163624	-0.458020
H	-4.349800	-1.699434	-0.497605
C	2.830063	0.231485	0.575253
H	2.848974	-0.046630	1.634938
H	3.862837	0.332148	0.216048
C	-3.114871	1.472896	0.250270
H	-3.986172	2.015306	-0.128840
H	-3.195133	1.437842	1.342655
H	-2.227511	2.058643	0.000126
O	2.209085	1.511903	0.594738
O	2.302308	2.059938	-0.752741
H	2.866857	2.825562	-0.580007





