%mem=28GB
%nprocshared=12
%chk=C3H7O2_1_5_1_scan_b3631gd.chk
#p ub3lyp/6-31g(d) opt=modredundant

using ub3lyp/6-31G(d) to scan

0 2
C -1.91251 -0.706941 0.141897
H -1.364177 -1.57081 -0.246643
H -2.930845 -0.74428 -0.25895
H -1.976923 -0.812414 1.231621
C -1.22189 0.60519 -0.245732
H -1.202786 0.717527 -1.33715
H -1.788028 1.461191 0.144328
C 0.19903 0.725596 0.282605
H 0.656561 1.689998 0.040224
H 0.2637 0.55801 1.362582
O 1.005791 -0.307666 -0.363931
O 2.23855 -0.322621 0.112853

D 4 1 5 8 S 40 10.0





